
#######################################################################
#
#                 Cambridge Crystallographic Data Centre
#                                CCDC 
#
#######################################################################
#
# If this CIF has been generated from an entry in the Cambridge 
# Structural Database, then it will include bibliographic, chemical, 
# crystal, experimental, refinement or atomic coordinate data resulting 
# from the CCDC's data processing and validation procedures.
#
#######################################################################

data_COF300
_symmetry_cell_setting           tetragonal
_symmetry_space_group_name_H-M   'I 41/a'
_symmetry_Int_Tables_number      88
_space_group_name_Hall           '-I 4ad'
loop_
_symmetry_equiv_pos_site_id
_symmetry_equiv_pos_as_xyz
1 x,y,z
2 1/2-x,-y,1/2+z
3 3/4-y,1/4+x,1/4+z
4 3/4+y,3/4-x,3/4+z
5 1/2+x,1/2+y,1/2+z
6 -x,1/2-y,z
7 1/4-y,3/4+x,3/4+z
8 1/4+y,1/4-x,1/4+z
9 -x,-y,-z
10 1/2+x,y,1/2-z
11 1/4+y,3/4-x,3/4-z
12 1/4-y,1/4+x,1/4-z
13 1/2-x,1/2-y,1/2-z
14 x,1/2+y,-z
15 3/4+y,1/4-x,1/4-z
16 3/4-y,3/4+x,3/4-z
_cell_length_a                   26.2260(18)
_cell_length_b                   26.2260(18)
_cell_length_c                   7.5743(10)
_cell_angle_alpha                90
_cell_angle_beta                 90
_cell_angle_gamma                90
_cell_volume                     5209.63
loop_
_atom_site_label
_atom_site_type_symbol
_atom_site_fract_x
_atom_site_fract_y
_atom_site_fract_z
C001 C 0.45336(9) 0.24465(10) -0.0014(3)
C002 C 0.5000 0.2500 -0.1250
N003 N 0.32911(10) 0.23528(10) 0.3510(4)
C004 C 0.41940(10) 0.20496(10) -0.0046(4)
H004 H 0.4235 0.1792 -0.0877
C005 C 0.37901(11) 0.20239(11) 0.1130(4)
H005 H 0.3560 0.1754 0.1062
C006 C 0.37271(10) 0.23917(12) 0.2388(4)
C007 C 0.44659(11) 0.28160(11) 0.1284(4)
H007 H 0.4698 0.3084 0.1355
C008 C 0.40700(11) 0.27990(11) 0.2460(4)
H008 H 0.4030 0.3055 0.3296
C009 C 0.29011(12) 0.25133(13) 0.6331(5)
C00A C 0.33309(12) 0.25192(13) 0.5050(5)
H00A H 0.3643 0.2653 0.5410
C00B C 0.29867(13) 0.26501(14) 0.8044(5)
H00B H 0.3309 0.2755 0.8402
C00C C 0.24129(13) 0.23692(14) 0.5750(4)
H00C H 0.2358 0.2288 0.4570
C001 C 0.54664(9) 0.25535(10) -0.0014(3)
N003 N 0.67089(10) 0.26472(10) 0.3510(4)
C004 C 0.58060(10) 0.29504(10) -0.0046(4)
H004 H 0.5765 0.3208 -0.0877
C005 C 0.62099(11) 0.29761(11) 0.1130(4)
H005 H 0.6440 0.3246 0.1062
C006 C 0.62729(10) 0.26083(12) 0.2388(4)
C007 C 0.55341(11) 0.21840(11) 0.1284(4)
H007 H 0.5302 0.1916 0.1355
C008 C 0.59300(11) 0.22010(11) 0.2460(4)
H008 H 0.5970 0.1945 0.3296
C009 C 0.70989(12) 0.24867(13) 0.6331(5)
C00A C 0.66691(12) 0.24808(13) 0.5050(5)
H00A H 0.6357 0.2347 0.5410
C00B C 0.70133(13) 0.23499(14) 0.8044(5)
H00B H 0.6691 0.2245 0.8402
C00C C 0.75871(13) 0.26308(14) 0.5750(4)
H00C H 0.7642 0.2712 0.4570
C001 C 0.49465(10) 0.29664(9) -0.2486(3)
N003 N 0.48528(10) 0.42089(10) -0.6010(4)
C004 C 0.45496(10) 0.33060(10) -0.2454(4)
H004 H 0.4292 0.3265 -0.1623
C005 C 0.45239(11) 0.37099(11) -0.3630(4)
H005 H 0.4254 0.3940 -0.3562
C006 C 0.48917(12) 0.37729(10) -0.4888(4)
C007 C 0.53160(11) 0.30341(11) -0.3784(4)
H007 H 0.5584 0.2802 -0.3855
C008 C 0.52990(11) 0.34300(11) -0.4960(4)
H008 H 0.5555 0.3470 -0.5796
C009 C 0.50133(13) 0.45989(12) -0.8831(5)
C00A C 0.50192(13) 0.41691(12) -0.7550(5)
H00A H 0.5153 0.3857 -0.7910
C00B C 0.51501(14) 0.45133(13) -1.0544(5)
H00B H 0.5255 0.4191 -1.0902
C00C C 0.48692(14) 0.50871(13) -0.8250(4)
H00C H 0.4788 0.5142 -0.7070
C001 C 0.50535(10) 0.20336(9) -0.2486(3)
N003 N 0.51472(10) 0.07911(10) -0.6010(4)
C004 C 0.54504(10) 0.16940(10) -0.2454(4)
H004 H 0.5708 0.1735 -0.1623
C005 C 0.54761(11) 0.12901(11) -0.3630(4)
H005 H 0.5746 0.1060 -0.3562
C006 C 0.51083(12) 0.12271(10) -0.4888(4)
C007 C 0.46840(11) 0.19659(11) -0.3784(4)
H007 H 0.4416 0.2198 -0.3855
C008 C 0.47010(11) 0.15700(11) -0.4960(4)
H008 H 0.4445 0.1530 -0.5796
C009 C 0.49867(13) 0.04011(12) -0.8831(5)
C00A C 0.49808(13) 0.08309(12) -0.7550(5)
H00A H 0.4847 0.1143 -0.7910
C00B C 0.48499(14) 0.04867(13) -1.0544(5)
H00B H 0.4745 0.0809 -1.0902
C00C C 0.51308(14) -0.00871(13) -0.8250(4)
H00C H 0.5212 -0.0142 -0.7070
C00B C 0.48499(14) 0.54867(13) -0.9456(5)
C00B C 0.51501(14) -0.04867(13) -0.9456(5)
C00B C 0.79867(13) 0.26501(14) 0.6956(5)
C00B C 0.20133(13) 0.23499(14) 0.6956(5)
C00C C 0.51308(14) 0.49129(13) -1.1750(4)
C00C C 0.48692(14) 0.00871(13) -1.1750(4)
C00C C 0.74129(13) 0.23692(14) 0.9250(4)
C00C C 0.25871(13) 0.26308(14) 0.9250(4)

#END
