
#######################################################################
#
#                 Cambridge Crystallographic Data Centre
#                                CCDC 
#
#######################################################################
#
# If this CIF has been generated from an entry in the Cambridge 
# Structural Database, then it will include bibliographic, chemical, 
# crystal, experimental, refinement or atomic coordinate data resulting 
# from the CCDC's data processing and validation procedures.
#
#######################################################################

data_5
_symmetry_cell_setting           monoclinic
_symmetry_space_group_name_H-M   'C 2/c'
_symmetry_Int_Tables_number      15
_space_group_name_Hall           '-C 2yn'
loop_
_symmetry_equiv_pos_site_id
_symmetry_equiv_pos_as_xyz
1 x,y,z
2 -x,y,1/2-z
3 1/2+x,1/2+y,z
4 1/2-x,1/2+y,1/2-z
5 -x,-y,-z
6 x,-y,1/2+z
7 1/2-x,1/2-y,-z
8 1/2+x,1/2-y,1/2+z
_cell_length_a                   43.992(11)
_cell_length_b                   39.313(9)
_cell_length_c                   29.961(7)
_cell_angle_alpha                90
_cell_angle_beta                 101.795(4)
_cell_angle_gamma                90
_cell_volume                     50722.2
loop_
_atom_site_label
_atom_site_type_symbol
_atom_site_fract_x
_atom_site_fract_y
_atom_site_fract_z
Cu01 Cu 0.57733(10) 0.49650(9) 0.4574(2)
Cu02 Cu 0.61486(11) 0.44357(10) 0.4696(2)
Cu03 Cu 0.76526(15) 0.26938(13) 0.8202(2)
Cu04 Cu 0.96931(10) 0.43657(11) 0.50972(19)
Cu05 Cu 0.77309(12) 0.27454(12) 0.90831(17)
Cu06 Cu 0.91931(12) 0.39957(14) 0.5040(3)
C00I C 0.9469(5) 0.2617(4) 0.7515(7)
N00L N 0.9362(5) 0.2656(6) 0.7893(7)
C019 C 0.9266(6) 0.2388(5) 0.8112(9)
N01J N 0.9290(5) 0.2050(5) 0.7942(6)
N00C N 0.9813(5) 0.2521(4) 0.6821(7)
N00D N 0.9753(5) 0.1339(5) 0.6990(7)
O00E O 0.9469(4) 0.0303(5) 0.5900(8)
C00F C 0.7653(6) 0.4791(6) 0.3160(8)
N00H N 0.9601(5) 0.2886(5) 0.7318(7)
O00J O 0.6477(5) 0.3963(5) 0.4774(8)
O00K O 0.5984(6) 0.5110(5) 0.4174(9)
O00N O 0.5461(4) 0.5396(4) 0.4488(8)
N00O N 0.5331(5) 0.3227(7) 0.6150(8)
O00Q O 0.8774(5) 0.3670(5) 0.5010(8)
N00U N 0.7950(5) 0.4899(6) 0.3361(8)
O00Y O 0.6079(6) 0.5155(4) 0.4997(9)
N00Z N 0.5658(6) 0.3561(5) 0.6782(9)
C011 C 0.9749(6) 0.2846(5) 0.6959(8)
N012 N 0.5577(5) 0.2362(5) 0.6914(7)
N016 N 0.8134(5) 0.4582(5) 0.2796(7)
O017 O 0.9145(5) 0.0755(4) 0.5800(8)
N01B N 0.7409(6) 0.4932(7) 0.3323(9)
O01C O 0.7323(5) 0.2738(8) 0.0935(10)
O01D O 0.6396(4) 0.4693(5) 0.5160(8)
N01F N 0.6875(7) 0.5013(7) 0.3187(10)
N01G N 0.9890(6) 0.3117(5) 0.6784(9)
N01H N 0.5305(5) 0.2634(5) 0.6231(8)
N01I N 0.7063(5) 0.4639(6) 0.2700(8)
O01K O 0.7623(6) 0.2653(6) 0.7411(8)
O01L O 0.8055(7) 0.2600(5) 0.8304(8)
C01P C 0.7790(10) 0.3341(11) 0.8602(17)
O01Q O 0.5598(4) 0.4752(4) 0.4994(7)
O01S O 0.8165(6) 0.2668(5) 0.9099(8)
O01U O 1.0130(6) 0.4648(5) 0.5152(8)
O01V O 0.7313(8) 0.2797(5) 0.8962(9)
N01W N 0.9142(6) 0.2428(5) 0.8482(7)
N01X N 0.7439(5) 0.3940(5) 0.1670(7)
N01Y N 0.8486(5) 0.4897(6) 0.3365(8)
C01Z C 0.7120(7) 0.4850(7) 0.3066(10)
O022 O 0.9858(5) 0.4070(5) 0.5608(9)
N023 N 0.6160(6) 0.2955(8) 0.8086(7)
C024 C 0.5503(7) 0.3487(7) 0.6361(10)
C026 C 0.7500(4) 0.4150(3) 0.2037(4)
N00T N 0.7255(3) 0.4276(4) 0.2217(5)
C018 C 0.7313(4) 0.4496(4) 0.2587(5)
N05W N 0.7616(4) 0.4590(3) 0.2779(4)
C00R C 0.7861(3) 0.4464(4) 0.2599(5)
N052 N 0.7803(3) 0.4244(4) 0.2228(5)
O027 O 0.7428(5) 0.2782(5) 0.1756(8)
O029 O 0.5187(4) 0.0974(5) 0.5294(8)
C02B C 0.9930(6) 0.1293(6) 0.6655(8)
H02A H 1.012569 0.117132 0.678439
H02B H 0.998335 0.151558 0.653716
O02C O 0.7746(5) 0.3149(6) 0.8258(8)
C02D C 0.9570(6) 0.0769(6) 0.6414(9)
H02D H 0.973541 0.060838 0.656676
C02E C 0.5672(7) 0.4469(7) 0.5183(10)
O02G O 0.9044(5) 0.4301(6) 0.4603(11)
O02H O 0.7312(14) 0.2787(7) 0.8185(8)
O02J O 0.9437(6) 0.4602(4) 0.4621(10)
O02K O 0.7786(5) 0.3227(5) 0.8927(10)
C02M C 0.9668(4) 0.1644(3) 0.7138(6)
N010 N 0.9778(3) 0.1914(5) 0.6917(4)
C015 C 0.9723(3) 0.2247(4) 0.7038(5)
N009 N 0.9559(4) 0.2309(3) 0.7379(6)
C01O C 0.9449(3) 0.2039(5) 0.7600(4)
N00M N 0.9503(4) 0.1707(4) 0.7479(5)
O02O O 0.9506(6) 0.4646(5) 0.5510(10)
C02Q C 0.9587(7) 0.1060(7) 0.7148(9)
H02C H 0.945336 0.115048 0.734980
H02E H 0.973763 0.090079 0.732883
O51 O 0.5895(7) 0.4292(4) 0.5056(10)
C02U C 0.9736(7) 0.1085(7) 0.6273(9)
H02F H 0.987258 0.100934 0.606757
H02G H 0.957665 0.123647 0.609490
C02W C 0.9390(6) 0.0873(6) 0.6762(8)
H02W H 0.917589 0.082477 0.674058
C02Y C 0.6884(6) 0.5216(7) 0.5469(10)
H02H H 0.686921 0.529686 0.515204
H02I H 0.695957 0.497855 0.547880
C02Z C 0.6604(7) 0.5078(7) 0.6013(9)
H02J H 0.665113 0.483222 0.601194
H02K H 0.640248 0.510297 0.610920
N030 N 0.7136(6) 0.5264(6) 0.6199(9)
O032 O 0.9090(5) 0.4302(8) 0.5408(10)
C033 C 0.5219(7) 0.3801(8) 0.5692(10)
H03A H 0.502040 0.392378 0.567638
H03B H 0.516260 0.356510 0.559162
C035 C 0.5481(8) 0.4109(8) 0.6309(12)
H035 H 0.546595 0.419685 0.659864
C036 C 0.6554(8) 0.4991(9) 0.2940(11)
H03C H 0.652736 0.481860 0.269393
H03D H 0.647460 0.521322 0.281109
C037 C 0.7119(10) 0.2814(11) 0.850(2)
C039 C 0.5029(7) 0.2014(8) 0.5873(10)
H03E H 0.499890 0.224551 0.574123
H03F H 0.482631 0.194144 0.593584
C03A C 0.9028(6) 0.2120(6) 0.8671(10)
H03G H 0.912775 0.208304 0.899425
H03H H 0.905294 0.191437 0.849039
C03B C 0.8536(8) 0.5129(7) 0.3741(9)
H03I H 0.833588 0.520081 0.381487
H03J H 0.865031 0.533328 0.367445
C03C C 0.9817(7) 0.3438(6) 0.6973(9)
H03K H 1.000502 0.354588 0.715568
H03L H 0.966142 0.340816 0.716717
O03D O 0.6333(4) 0.4684(7) 0.4235(9)
C03E C 0.9861(9) 0.3614(9) 0.6174(11)
H03M H 1.007254 0.371219 0.628549
C03M C 0.9701(7) 0.3826(9) 0.5760(12)
O03F O 0.5640(7) 0.1237(6) 0.5325(12)
C03G C 0.6853(7) 0.5250(8) 0.6368(11)
H03N H 0.678689 0.548338 0.642877
H03O H 0.688747 0.512039 0.665707
C03H C 0.9400(6) 0.0596(7) 0.5985(9)
C03I C 0.6326(7) 0.5017(9) 0.5201(9)
C03L C 0.6596(7) 0.2604(7) 0.8364(10)
H03P H 0.666756 0.240637 0.856363
H03Q H 0.662917 0.254915 0.805536
C03Q C 0.5487(7) 0.4306(7) 0.5498(10)
H03R H 0.529585 0.444977 0.546678
C03R C 0.8752(7) 0.2809(8) 0.8549(11)
H03S H 0.870082 0.304230 0.863379
H03T H 0.865880 0.277601 0.822220
C03T C 0.8691(6) 0.2224(7) 0.8615(10)
H03U H 0.858202 0.203739 0.873909
H03V H 0.860319 0.223584 0.828372
C03U C 0.7131(7) 0.5421(7) 0.5764(10)
H03W H 0.733314 0.539757 0.567004
H03X H 0.707413 0.566473 0.576466
C03V C 0.6317(7) 0.3266(8) 0.8243(12)
H03Y H 0.628721 0.332286 0.855355
H H 0.623653 0.345634 0.803579
C03X C 1.0064(8) 0.3089(9) 0.6418(10)
H03Z H 1.009844 0.284505 0.636140
HA H 1.027030 0.319610 0.652049
C03Y C 0.8608(7) 0.2556(7) 0.8828(11)
H03 H 0.869605 0.257137 0.916251
C03Z C 0.9248(8) 0.4551(8) 0.5617(11)
C040 C 0.5631(8) 0.4317(8) 0.5993(10)
H04A H 0.563452 0.455739 0.609368
H04B H 0.584979 0.424250 0.602939
C041 C 0.9010(8) 0.4751(8) 0.4000(11)
H041 H 0.916075 0.493358 0.396126
C042 C 0.9684(7) 0.3649(7) 0.6552(10)
H04C H 0.946611 0.358065 0.643507
H04D H 0.968402 0.389190 0.664094
C043 C 0.5102(8) 0.1780(8) 0.5503(12)
H04E H 0.528532 0.185830 0.538797
H04F H 0.492207 0.175662 0.524467
C044 C 0.7866(7) 0.3713(10) 0.8605(11)
H044 H 0.790334 0.380736 0.892103
C045 C 0.9903(8) 0.3253(8) 0.5976(11)
H04G H 0.970254 0.314343 0.584485
H04H H 1.003654 0.325823 0.574628
C048 C 0.7730(6) 0.3829(7) 0.1568(11)
H04I H 0.790674 0.390565 0.180551
H04J H 0.775563 0.391763 0.126857
O049 O 0.9422(6) 0.3775(5) 0.5533(10)
C04A C 0.5169(9) 0.1437(8) 0.5788(12)
H04K H 0.498576 0.130859 0.584771
C04L C 0.5355(12) 0.1273(13) 0.5476(14)
C04C C 0.6654(7) 0.3204(7) 0.8246(10)
H04L H 0.677436 0.341018 0.835928
H04M H 0.667928 0.316285 0.792932
C04D C 0.6256(7) 0.2654(8) 0.8342(12)
H04N H 0.613851 0.245552 0.819258
H04O H 0.621505 0.267592 0.865305
C04F C 0.8922(8) 0.4567(8) 0.3562(11)
H04P H 0.881208 0.435697 0.361857
H04Q H 0.911609 0.449646 0.346866
C04G C 0.9103(7) 0.2775(7) 0.8617(11)
H04R H 0.918843 0.293729 0.842219
H04S H 0.920480 0.281318 0.893978
C04H C 0.7124(6) 0.3824(6) 0.1481(10)
H04T H 0.705099 0.391031 0.116716
H04U H 0.697812 0.390184 0.167265
C04I C 0.8219(10) 0.2597(8) 0.8698(17)
N04K N 0.8746(5) 0.5028(8) 0.6518(10)
C1 C 0.7707(7) 0.3440(7) 0.1559(10)
H1A H 0.788276 0.334662 0.143697
H1B H 0.772749 0.335586 0.187502
C04N C 0.8833(7) 0.4978(8) 0.5727(11)
H04V H 0.885470 0.513219 0.547435
H04W H 0.868293 0.479750 0.560206
C04O C 0.9170(9) 0.4518(12) 0.4382(13)
C04P C 0.9007(9) 0.4798(10) 0.6724(12)
H04X H 0.893206 0.462521 0.691586
H04Y H 0.917312 0.493168 0.692025
C04Q C 0.8144(7) 0.3775(7) 0.8385(11)
H04Z H 0.832753 0.365487 0.856285
HB H 0.810051 0.367985 0.807259
C04R C 0.6913(10) 0.5258(10) 0.3555(12)
H04 H 0.681869 0.547695 0.343724
HC H 0.713646 0.529605 0.367758
C04T C 0.6761(7) 0.5134(8) 0.3930(10)
H0AA H 0.679513 0.529975 0.418457
HD H 0.685065 0.491289 0.404736
C04W C 0.7406(7) 0.3308(9) 0.1273(10)
C051 C 0.7148(7) 0.3445(6) 0.1485(10)
H05A H 0.694852 0.334975 0.132044
H05B H 0.718119 0.336568 0.180512
C057 C 0.5442(8) 0.1487(8) 0.6191(11)
H05C H 0.562257 0.156737 0.606954
H05D H 0.549775 0.126207 0.633260
C058 C 0.7597(8) 0.3893(9) 0.8297(13)
H05E H 0.752795 0.373832 0.803506
H05F H 0.742737 0.389766 0.846795
C05B C 0.7603(6) 0.4244(9) 0.8093(13)
H05G H 0.747801 0.425145 0.777829
H05H H 0.752255 0.441655 0.828003
C05C C 0.8728(8) 0.4922(10) 0.4131(12)
H05I H 0.880045 0.507339 0.439496
H05J H 0.859486 0.474448 0.422617
C05F C 0.8194(6) 0.4780(7) 0.3172(9)
C05L C 0.8723(7) 0.4749(9) 0.3165(11)
H05K H 0.884322 0.492520 0.304017
H05L H 0.863437 0.458738 0.291908
C05Y C 0.5400(6) 0.2930(8) 0.6378(8)
C066 C 0.5994(4) 0.2936(6) 0.7640(5)
N01R N 0.5862(5) 0.2635(4) 0.7447(7)
C98 C 0.5664(4) 0.2640(4) 0.7022(7)
N00B N 0.5597(3) 0.2946(6) 0.6790(5)
C00S C 0.5729(5) 0.3247(4) 0.6983(7)
N014 N 0.5927(4) 0.3241(4) 0.7408(8)
N06M N 0.5362(6) 0.3778(7) 0.6175(10)
C06W C 0.6566(6) 0.5204(7) 0.5548(10)
H06W H 0.649291 0.544436 0.555125
C07E C 0.6785(8) 0.2904(7) 0.8539(12)
H07E H 0.677445 0.294680 0.886496
C21 C 0.6419(7) 0.5097(8) 0.3732(10)
H21 H 0.634151 0.532773 0.362191
C25 C 0.6402(8) 0.4882(8) 0.3324(11)
H25A H 0.617890 0.484561 0.319234
H25B H 0.648967 0.465768 0.343084
C28 C 0.5368(8) 0.3957(7) 0.5325(11)
H28A H 0.521359 0.397788 0.503531
H28B H 0.554151 0.381278 0.527140
C29 C 0.5394(10) 0.1741(9) 0.6579(14)
H29A H 0.525668 0.164093 0.676772
H29B H 0.559554 0.180115 0.677869
N3 N 0.5247(8) 0.2045(6) 0.6320(10)
N24 N 0.7930(6) 0.4301(6) 0.8096(7)
C73 C 0.5398(6) 0.2340(6) 0.6491(8)
C60 C 0.8216(7) 0.4150(8) 0.8365(12)
H60A H 0.826703 0.424964 0.867484
H60B H 0.839367 0.418788 0.821343
C96 C 0.8713(7) 0.5173(7) 0.6081(10)
H96A H 0.881875 0.539670 0.611517
H96B H 0.848972 0.521594 0.596310
C88 C 0.7899(5) 0.4427(6) 0.7665(7)
N54 N 0.8168(5) 0.4540(6) 0.7534(7)
C16 C 0.7636(4) 0.4815(6) 0.7049(8)
N5AA N 0.7930(3) 0.4867(4) 0.6957(5)
C44 C 0.8210(4) 0.4729(4) 0.7183(4)
N038 N 0.8477(3) 0.4775(4) 0.7009(6)
C03K C 0.8463(4) 0.4959(4) 0.6609(6)
N7AA N 0.8183(5) 0.5097(4) 0.6383(5)
C4AA C 0.7916(3) 0.5051(4) 0.6557(5)
N6 N 0.7665(5) 0.5197(5) 0.6260(6)
C028 C 0.7411(6) 0.5123(7) 0.6433(9)
N6AA N 0.7369(4) 0.4975(5) 0.6822(7)
N53 N 0.7668(5) 0.4636(6) 0.7454(7)
C20 C 0.9137(8) 0.4622(7) 0.6350(10)
H20A H 0.935050 0.454587 0.648608
H20B H 0.901145 0.441538 0.625925
C93 C 0.6221(7) 0.4980(8) 0.4058(10)
C94 C 0.9151(7) 0.4815(8) 0.5929(10)
H94 H 0.931362 0.499635 0.599898
C3 C 0.7405(10) 0.2887(11) 0.131(2)
O29 O 0.7892(6) 0.2799(5) 0.9896(6)
Cu01 Cu 0.92267(10) 0.00350(9) 0.5426(2)
Cu02 Cu 0.88514(11) 0.05643(10) 0.5304(2)
Cu03 Cu 0.73474(15) 0.23062(13) 0.1798(2)
Cu04 Cu 0.53069(10) 0.06343(11) 0.49028(19)
Cu05 Cu 0.72691(12) 0.22546(12) 0.09169(17)
Cu06 Cu 0.58069(12) 0.10043(14) 0.4960(3)
C00I C 0.5531(5) 0.2383(4) 0.2485(7)
N00L N 0.5638(5) 0.2344(6) 0.2107(7)
C019 C 0.5734(6) 0.2612(5) 0.1888(9)
N01J N 0.5710(5) 0.2950(5) 0.2058(6)
N00C N 0.5187(5) 0.2479(4) 0.3179(7)
N00D N 0.5247(5) 0.3661(5) 0.3010(7)
O00E O 0.5531(4) 0.4697(5) 0.4100(8)
C00F C 0.7347(6) 0.0209(6) 0.6840(8)
N00H N 0.5399(5) 0.2114(5) 0.2682(7)
O00J O 0.8523(5) 0.1037(5) 0.5226(8)
O00K O 0.9016(6) -0.0110(5) 0.5826(9)
O00N O 0.9539(4) -0.0396(4) 0.5512(8)
N00O N 0.9669(5) 0.1773(7) 0.3850(8)
O00Q O 0.6226(5) 0.1330(5) 0.4990(8)
N00U N 0.7050(5) 0.0101(6) 0.6639(8)
O00Y O 0.8921(6) -0.0155(4) 0.5003(9)
N00Z N 0.9342(6) 0.1439(5) 0.3218(9)
C011 C 0.5251(6) 0.2154(5) 0.3041(8)
N012 N 0.9423(5) 0.2638(5) 0.3086(7)
N016 N 0.6866(5) 0.0418(5) 0.7204(7)
O017 O 0.5855(5) 0.4245(4) 0.4200(8)
N01B N 0.7591(6) 0.0068(7) 0.6677(9)
O01C O 0.7677(5) 0.2262(8) 0.9065(10)
O01D O 0.8604(4) 0.0307(5) 0.4840(8)
N01F N 0.8125(7) -0.0013(7) 0.6813(10)
N01G N 0.5110(6) 0.1883(5) 0.3216(9)
N01H N 0.9695(5) 0.2366(5) 0.3769(8)
N01I N 0.7937(5) 0.0361(6) 0.7300(8)
O01K O 0.7377(6) 0.2347(6) 0.2589(8)
O01L O 0.6945(7) 0.2400(5) 0.1696(8)
C01P C 0.7210(10) 0.1659(11) 0.1398(17)
O01Q O 0.9402(4) 0.0248(4) 0.5006(7)
O01S O 0.6835(6) 0.2332(5) 0.0901(8)
O01U O 0.4870(6) 0.0352(5) 0.4848(8)
O01V O 0.7687(8) 0.2203(5) 0.1038(9)
N01W N 0.5858(6) 0.2572(5) 0.1518(7)
N01X N 0.7561(5) 0.1060(5) 0.8330(7)
N01Y N 0.6514(5) 0.0103(6) 0.6635(8)
C01Z C 0.7880(7) 0.0150(7) 0.6934(10)
O022 O 0.5142(5) 0.0930(5) 0.4392(9)
N023 N 0.8840(6) 0.2045(8) 0.1914(7)
C024 C 0.9497(7) 0.1513(7) 0.3639(10)
C026 C 0.7500(4) 0.0850(3) 0.7963(4)
N00T N 0.7745(3) 0.0724(4) 0.7783(5)
C018 C 0.7687(4) 0.0504(4) 0.7413(5)
N05W N 0.7384(4) 0.0410(3) 0.7221(4)
C00R C 0.7139(3) 0.0536(4) 0.7401(5)
N052 N 0.7197(3) 0.0756(4) 0.7772(5)
O027 O 0.7572(5) 0.2218(5) 0.8244(8)
O029 O 0.9813(4) 0.4026(5) 0.4706(8)
C02B C 0.5070(6) 0.3707(6) 0.3345(8)
H02A H 0.487431 0.382868 0.321561
H02B H 0.501665 0.348442 0.346284
O02C O 0.7254(5) 0.1851(6) 0.1742(8)
C02D C 0.5430(6) 0.4231(6) 0.3586(9)
H02D H 0.526459 0.439162 0.343324
C02E C 0.9328(7) 0.0531(7) 0.4817(10)
O02G O 0.5956(5) 0.0699(6) 0.5397(11)
O02H O 0.7688(14) 0.2213(7) 0.1815(8)
O02J O 0.5563(6) 0.0398(4) 0.5379(10)
O02K O 0.7214(5) 0.1773(5) 0.1073(10)
C02M C 0.5332(4) 0.3356(3) 0.2862(6)
N010 N 0.5222(3) 0.3086(5) 0.3083(4)
C015 C 0.5277(3) 0.2753(4) 0.2962(5)
N009 N 0.5441(4) 0.2691(3) 0.2621(6)
C01O C 0.5551(3) 0.2961(5) 0.2400(4)
N00M N 0.5497(4) 0.3293(4) 0.2521(5)
O02O O 0.5494(6) 0.0354(5) 0.4490(10)
C02Q C 0.5413(7) 0.3940(7) 0.2852(9)
H02C H 0.554664 0.384952 0.265020
H02E H 0.526237 0.409921 0.267117
O51 O 0.9105(7) 0.0708(4) 0.4944(10)
C02U C 0.5264(7) 0.3915(7) 0.3727(9)
H02F H 0.512742 0.399066 0.393243
H02G H 0.542335 0.376353 0.390510
C02W C 0.5610(6) 0.4127(6) 0.3238(8)
H02W H 0.582411 0.417523 0.325942
C02Y C 0.8116(6) -0.0216(7) 0.4531(10)
H02H H 0.813079 -0.029686 0.484796
H02I H 0.804043 0.002145 0.452120
C02Z C 0.8396(7) -0.0078(7) 0.3987(9)
H02J H 0.834887 0.016778 0.398806
H02K H 0.859752 -0.010297 0.389080
N030 N 0.7864(6) -0.0264(6) 0.3801(9)
O032 O 0.5910(5) 0.0698(8) 0.4592(10)
C033 C 0.9781(7) 0.1199(8) 0.4308(10)
H03A H 0.997960 0.107622 0.432362
H03B H 0.983740 0.143490 0.440838
C035 C 0.9519(8) 0.0891(8) 0.3691(12)
H035 H 0.953405 0.080315 0.340136
C036 C 0.8446(8) 0.0009(9) 0.7060(11)
H03C H 0.847264 0.018140 0.730607
H03D H 0.852540 -0.021322 0.718891
C037 C 0.7881(10) 0.2186(11) 0.150(2)
C039 C 0.9971(7) 0.2986(8) 0.4127(10)
H03E H 1.000110 0.275449 0.425877
H03F H 1.017369 0.305856 0.406416
C03A C 0.5972(6) 0.2880(6) 0.1329(10)
H03G H 0.587225 0.291696 0.100575
H03H H 0.594706 0.308563 0.150961
C03B C 0.6464(8) -0.0129(7) 0.6259(9)
H03I H 0.666412 -0.020081 0.618513
H03J H 0.634969 -0.033328 0.632555
C03C C 0.5183(7) 0.1562(6) 0.3027(9)
H03K H 0.499498 0.145412 0.284432
H03L H 0.533858 0.159184 0.283283
O03D O 0.8667(4) 0.0316(7) 0.5765(9)
C03E C 0.5139(9) 0.1386(9) 0.3826(11)
H03M H 0.492746 0.128781 0.371451
C03M C 0.5299(7) 0.1174(9) 0.4240(12)
O03F O 0.9360(7) 0.3763(6) 0.4675(12)
C03G C 0.8147(7) -0.0250(8) 0.3632(11)
H03N H 0.821311 -0.048338 0.357123
H03O H 0.811253 -0.012039 0.334293
C03H C 0.5600(6) 0.4404(7) 0.4015(9)
C03I C 0.8674(7) -0.0017(9) 0.4799(9)
C03L C 0.8404(7) 0.2396(7) 0.1636(10)
H03P H 0.833244 0.259363 0.143637
H03Q H 0.837083 0.245085 0.194464
C03Q C 0.9513(7) 0.0694(7) 0.4502(10)
H03R H 0.970415 0.055023 0.453322
C03R C 0.6248(7) 0.2191(8) 0.1451(11)
H03S H 0.629918 0.195770 0.136621
H03T H 0.634120 0.222399 0.177780
C03T C 0.6309(6) 0.2776(7) 0.1385(10)
H03U H 0.641798 0.296261 0.126091
H03V H 0.639681 0.276416 0.171628
C03U C 0.7869(7) -0.0421(7) 0.4236(10)
H03W H 0.766686 -0.039757 0.432996
H03X H 0.792587 -0.066473 0.423534
C03V C 0.8683(7) 0.1734(8) 0.1757(12)
H03Y H 0.871279 0.167714 0.144645
H H 0.876347 0.154366 0.196421
C03X C 0.4936(8) 0.1911(9) 0.3582(10)
H03Z H 0.490156 0.215495 0.363860
HA H 0.472970 0.180390 0.347951
C03Y C 0.6392(7) 0.2444(7) 0.1172(11)
H03 H 0.630395 0.242863 0.083749
C03Z C 0.5752(8) 0.0449(8) 0.4383(11)
C040 C 0.9369(8) 0.0683(8) 0.4007(10)
H04A H 0.936548 0.044261 0.390632
H04B H 0.915021 0.075750 0.397061
C041 C 0.5990(8) 0.0249(8) 0.6000(11)
H041 H 0.583925 0.006642 0.603874
C042 C 0.5316(7) 0.1351(7) 0.3448(10)
H04C H 0.553389 0.141935 0.356493
H04D H 0.531598 0.110810 0.335906
C043 C 0.9898(8) 0.3220(8) 0.4497(12)
H04E H 0.971468 0.314170 0.461203
H04F H 1.007793 0.324338 0.475533
C044 C 0.7134(7) 0.1287(10) 0.1395(11)
H044 H 0.709666 0.119264 0.107897
C045 C 0.5097(8) 0.1747(8) 0.4024(11)
H04G H 0.529746 0.185657 0.415515
H04H H 0.496346 0.174177 0.425372
C048 C 0.7270(6) 0.1171(7) 0.8432(11)
H04I H 0.709326 0.109435 0.819449
H04J H 0.724437 0.108237 0.873143
O049 O 0.5578(6) 0.1225(5) 0.4467(10)
C04A C 0.9831(9) 0.3563(8) 0.4212(12)
H04K H 1.001424 0.369141 0.415229
C04L C 0.9645(12) 0.3727(13) 0.4524(14)
C04C C 0.8346(7) 0.1796(7) 0.1754(10)
H04L H 0.822564 0.158982 0.164072
H04M H 0.832072 0.183715 0.207068
C04D C 0.8744(7) 0.2346(8) 0.1658(12)
H04N H 0.886149 0.254448 0.180742
H04O H 0.878495 0.232408 0.134695
C04F C 0.6078(8) 0.0433(8) 0.6438(11)
H04P H 0.618792 0.064303 0.638143
H04Q H 0.588391 0.050354 0.653134
C04G C 0.5897(7) 0.2225(7) 0.1383(11)
H04R H 0.581157 0.206271 0.157781
H04S H 0.579520 0.218682 0.106022
C04H C 0.7876(6) 0.1176(6) 0.8519(10)
H04T H 0.794901 0.108969 0.883284
H04U H 0.802188 0.109816 0.832735
C04I C 0.6781(10) 0.2403(8) 0.1302(17)
N04K N 0.6254(5) -0.0028(8) 0.3482(10)
C1 C 0.7293(7) 0.1560(7) 0.8441(10)
H1A H 0.711724 0.165338 0.856303
H1B H 0.727251 0.164414 0.812498
C04N C 0.6167(7) 0.0022(8) 0.4273(11)
H04V H 0.614530 -0.013219 0.452565
H04W H 0.631707 0.020250 0.439794
C04O C 0.5830(9) 0.0482(12) 0.5618(13)
C04P C 0.5993(9) 0.0202(10) 0.3276(12)
H04X H 0.606794 0.037479 0.308414
H04Y H 0.582688 0.006832 0.307975
C04Q C 0.6856(7) 0.1225(7) 0.1615(11)
H04Z H 0.667247 0.134513 0.143715
HB H 0.689949 0.132015 0.192741
C04R C 0.8087(10) -0.0258(10) 0.6445(12)
H04 H 0.818131 -0.047695 0.656276
HC H 0.786354 -0.029605 0.632242
C04T C 0.8239(7) -0.0134(8) 0.6070(10)
H0AA H 0.820487 -0.029975 0.581543
HD H 0.814935 0.008711 0.595264
C04W C 0.7594(7) 0.1692(9) 0.8727(10)
C051 C 0.7852(7) 0.1555(6) 0.8515(10)
H05A H 0.805148 0.165025 0.867956
H05B H 0.781881 0.163432 0.819488
C057 C 0.9558(8) 0.3513(8) 0.3809(11)
H05C H 0.937743 0.343263 0.393046
H05D H 0.950225 0.373793 0.366740
C058 C 0.7403(8) 0.1107(9) 0.1703(13)
H05E H 0.747205 0.126168 0.196494
H05F H 0.757263 0.110234 0.153205
C05B C 0.7397(6) 0.0756(9) 0.1907(13)
H05G H 0.752199 0.074855 0.222171
H05H H 0.747745 0.058345 0.171997
C05C C 0.6272(8) 0.0078(10) 0.5869(12)
H05I H 0.619955 -0.007339 0.560504
H05J H 0.640514 0.025552 0.577383
C05F C 0.6806(6) 0.0220(7) 0.6828(9)
C05L C 0.6277(7) 0.0251(9) 0.6835(11)
H05K H 0.615678 0.007480 0.695983
H05L H 0.636563 0.041262 0.708092
C05Y C 0.9600(6) 0.2070(8) 0.3622(8)
C066 C 0.9006(4) 0.2064(6) 0.2360(5)
N01R N 0.9138(5) 0.2365(4) 0.2553(7)
C98 C 0.9336(4) 0.2360(4) 0.2978(7)
N00B N 0.9403(3) 0.2054(6) 0.3210(5)
C00S C 0.9271(5) 0.1753(4) 0.3017(7)
N014 N 0.9073(4) 0.1759(4) 0.2592(8)
N06M N 0.9638(6) 0.1222(7) 0.3825(10)
C06W C 0.8434(6) -0.0204(7) 0.4452(10)
H06W H 0.850709 -0.044436 0.444875
C07E C 0.8215(8) 0.2096(7) 0.1461(12)
H07E H 0.822555 0.205320 0.113504
C21 C 0.8581(7) -0.0097(8) 0.6268(10)
H21 H 0.865849 -0.032773 0.637809
C25 C 0.8598(8) 0.0118(8) 0.6676(11)
H25A H 0.882110 0.015439 0.680766
H25B H 0.851033 0.034232 0.656916
C28 C 0.9632(8) 0.1043(7) 0.4675(11)
H28A H 0.978641 0.102212 0.496469
H28B H 0.945849 0.118722 0.472860
C29 C 0.9606(10) 0.3259(9) 0.3421(14)
H29A H 0.974332 0.335907 0.323228
H29B H 0.940446 0.319885 0.322131
N3 N 0.9753(8) 0.2955(6) 0.3680(10)
N24 N 0.7070(6) 0.0699(6) 0.1904(7)
C73 C 0.9602(6) 0.2660(6) 0.3509(8)
C60 C 0.6784(7) 0.0850(8) 0.1635(12)
H60A H 0.673297 0.075036 0.132516
H60B H 0.660633 0.081212 0.178657
C96 C 0.6287(7) -0.0173(7) 0.3919(10)
H96A H 0.618125 -0.039670 0.388483
H96B H 0.651028 -0.021594 0.403690
C88 C 0.7101(5) 0.0573(6) 0.2335(7)
N54 N 0.6832(5) 0.0460(6) 0.2466(7)
C16 C 0.7364(4) 0.0185(6) 0.2951(8)
N5AA N 0.7070(3) 0.0133(4) 0.3043(5)
C44 C 0.6790(4) 0.0271(4) 0.2817(4)
N038 N 0.6523(3) 0.0225(4) 0.2991(6)
C03K C 0.6537(4) 0.0041(4) 0.3391(6)
N7AA N 0.6817(5) -0.0097(4) 0.3617(5)
C4AA C 0.7084(3) -0.0051(4) 0.3443(5)
N6 N 0.7335(5) -0.0197(5) 0.3740(6)
C028 C 0.7589(6) -0.0123(7) 0.3567(9)
N6AA N 0.7631(4) 0.0025(5) 0.3178(7)
N53 N 0.7332(5) 0.0364(6) 0.2546(7)
C20 C 0.5863(8) 0.0378(7) 0.3650(10)
H20A H 0.564950 0.045413 0.351392
H20B H 0.598855 0.058462 0.374075
C93 C 0.8779(7) 0.0020(8) 0.5942(10)
C94 C 0.5849(7) 0.0185(8) 0.4071(10)
H94 H 0.568638 0.000365 0.400102
C3 C 0.7595(10) 0.2113(11) 0.869(2)
O29 O 0.7108(6) 0.2201(5) 0.0104(6)

#END
