
#######################################################################
#
#                 Cambridge Crystallographic Data Centre
#                                CCDC 
#
#######################################################################
#
# If this CIF has been generated from an entry in the Cambridge 
# Structural Database, then it will include bibliographic, chemical, 
# crystal, experimental, refinement or atomic coordinate data resulting 
# from the CCDC's data processing and validation procedures.
#
#######################################################################

data_tx1497
_symmetry_cell_setting           monoclinic
_symmetry_space_group_name_H-M   'P 21/n'
_symmetry_Int_Tables_number      14
_space_group_name_Hall           '-P 2yn'
loop_
_symmetry_equiv_pos_site_id
_symmetry_equiv_pos_as_xyz
1 x,y,z
2 1/2-x,1/2+y,1/2-z
3 -x,-y,-z
4 1/2+x,1/2-y,1/2+z
_cell_length_a                   11.8713(2)
_cell_length_b                   21.3316(3)
_cell_length_c                   24.2532(4)
_cell_angle_alpha                90
_cell_angle_beta                 100.2060(10)
_cell_angle_gamma                90
_cell_volume                     6044.55
loop_
_atom_site_label
_atom_site_type_symbol
_atom_site_fract_x
_atom_site_fract_y
_atom_site_fract_z
O1 O 0.2343(9) 0.6619(4) 0.8554(4)
O2 O 0.1609(3) 0.70869(17) 0.43727(13)
O3 O 0.2629(8) 0.9015(5) 0.5929(5)
O4 O 0.8373(5) 0.6233(5) 0.4545(4)
O5 O 0.9404(7) 0.8169(4) 0.6088(3)
O6 O 0.7514(5) 0.3852(2) 0.7182(2)
O7 O 0.9028(8) 0.5786(5) 0.8674(4)
O8 O 0.0977(8) 0.4763(3) 0.6993(5)
C2 C 0.2297(3) 0.68535(14) 0.80177(12)
C2EA C 0.2067(2) 0.64282(12) 0.75923(11)
C3 C 0.2501(3) 0.74939(15) 0.79182(13)
H3 H 0.264223 0.777146 0.821820
C4 C 0.2493(3) 0.77079(14) 0.73911(12)
H4 H 0.264842 0.812822 0.733541
C5 C 0.2250(4) 0.7298(3) 0.6921(2)
C6 C 0.2234(6) 0.7497(3) 0.6385(3)
H6 H 0.239968 0.791647 0.633107
C7 C 0.1983(5) 0.7109(3) 0.5905(3)
C8 C 0.19629(19) 0.73180(11) 0.53501(11)
C9 C 0.1613(2) 0.69053(13) 0.49229(12)
C10 C 0.1287(2) 0.62828(13) 0.50221(12)
H10 H 0.106567 0.601206 0.472188
C11 C 0.1296(2) 0.60808(14) 0.55486(15)
H11 H 0.107174 0.567247 0.560923
C12 C 0.1639(5) 0.6480(3) 0.6006(2)
C13 C 0.1679(3) 0.6276(2) 0.6559(3)
H13 H 0.146652 0.586418 0.661338
C14 C 0.2017(4) 0.6649(3) 0.7035(2)
C15 C 0.2404(6) 0.7048(3) 0.8998(2)
H15A H 0.175749 0.732540 0.892634
H15B H 0.309714 0.728692 0.902886
H15C H 0.239729 0.682461 0.934073
C16 C 0.0559(5) 0.7131(3) 0.4049(2)
H16A H 0.063583 0.716502 0.366305
H16B H 0.017427 0.749539 0.415588
H16C H 0.012132 0.676341 0.409967
C17 C 0.22521(17) 0.80151(10) 0.52309(9)
H17A H 0.213205 0.807737 0.482853
H17B H 0.171990 0.828549 0.537880
C18 C 0.3458(2) 0.82163(11) 0.54770(11)
C19 C 0.3603(2) 0.87332(12) 0.58203(12)
C20 C 0.4695(2) 0.89628(14) 0.60609(14)
H20 H 0.475895 0.931520 0.629005
C21 C 0.5655(3) 0.86695(13) 0.59580(13)
H21 H 0.637080 0.882224 0.611996
C22 C 0.5577(5) 0.8140(2) 0.5611(2)
C23 C 0.6553(4) 0.7840(3) 0.5504(4)
H23 H 0.726313 0.799494 0.567258
C24 C 0.6521(3) 0.7315(2) 0.5156(2)
C25 C 0.7533(2) 0.69841(11) 0.50620(10)
C26 C 0.7398(3) 0.65197(15) 0.46706(12)
C27 C 0.6313(2) 0.63262(13) 0.43814(12)
H27 H 0.625785 0.600539 0.411826
C28 C 0.5357(2) 0.66100(13) 0.44894(11)
H28 H 0.464435 0.646968 0.430931
C29 C 0.5418(5) 0.71193(18) 0.48733(16)
C30 C 0.4416(5) 0.7422(2) 0.49776(17)
H30 H 0.370610 0.728585 0.479040
C31 C 0.4468(4) 0.7920(2) 0.5355(2)
C32 C 0.2728(4) 0.9511(2) 0.6318(2)
H32A H 0.316955 0.984346 0.619502
H32B H 0.310321 0.936336 0.667760
H32C H 0.197977 0.966379 0.634546
C33 C 0.8391(3) 0.55779(14) 0.45038(14)
H33A H 0.790375 0.544877 0.416356
H33B H 0.812103 0.539653 0.481859
H33C H 0.915895 0.543956 0.450072
C34 C 0.86751(16) 0.71543(9) 0.53944(8)
H34A H 0.885216 0.757610 0.528706
H34B H 0.923723 0.687808 0.527695
C35 C 0.8854(2) 0.71347(12) 0.60206(11)
C36 C 0.9246(2) 0.76571(14) 0.63337(12)
C37 C 0.9437(2) 0.76454(14) 0.69279(12)
H37 H 0.969514 0.800449 0.712867
C38 C 0.9246(2) 0.71152(15) 0.72057(13)
H38 H 0.937501 0.711212 0.759527
C39 C 0.8850(5) 0.6568(3) 0.6905(3)
C40 C 0.8655(6) 0.6018(4) 0.7195(3)
H40 H 0.881289 0.602704 0.758456
C41 C 0.8235(6) 0.5453(4) 0.6932(3)
C42 C 0.8024(2) 0.49010(14) 0.72083(11)
C43 C 0.7663(2) 0.43843(17) 0.68929(14)
C44 C 0.7475(2) 0.43837(14) 0.63031(12)
H44 H 0.722185 0.402258 0.610440
C45 C 0.7670(2) 0.49182(14) 0.60264(13)
H45 H 0.754179 0.492285 0.563686
C46 C 0.8067(5) 0.5467(3) 0.6330(3)
C47 C 0.8282(5) 0.6008(3) 0.6037(2)
H47 H 0.817657 0.599184 0.564852
C48 C 0.8651(4) 0.6572(3) 0.6307(2)
C49 C 0.9766(7) 0.8733(3) 0.6360(3)
H49A H 0.982106 0.905117 0.608640
H49B H 1.050080 0.867364 0.659292
H49C H 0.922201 0.886071 0.658803
C50 C 0.6969(3) 0.33168(17) 0.68872(17)
H50A H 0.742458 0.316922 0.662405
H50B H 0.622424 0.343414 0.669068
H50C H 0.689328 0.298974 0.715014
C51 C 0.82058(19) 0.48882(12) 0.78547(9)
H51A H 0.806422 0.446417 0.796980
H51B H 0.900454 0.498082 0.799648
C52 C 0.7504(3) 0.53177(16) 0.81293(12)
C53 C 0.7994(3) 0.5750(2) 0.85177(14)
C54 C 0.7304(3) 0.6166(2) 0.87753(14)
H54 H 0.765161 0.645608 0.903799
C55 C 0.6150(3) 0.61446(19) 0.86421(14)
H55 H 0.572228 0.642556 0.881374
C56 C 0.5567(6) 0.5710(3) 0.8250(2)
C57 C 0.4382(6) 0.5698(2) 0.8095(2)
H57 H 0.395898 0.599419 0.825148
C58 C 0.3769(7) 0.5252(4) 0.7704(4)
C59 C 0.2606(2) 0.52574(12) 0.75202(11)
C60 C 0.2147(2) 0.47710(13) 0.71828(13)
C61 C 0.2841(2) 0.43001(13) 0.69962(13)
H61 H 0.249820 0.397724 0.676854
C62 C 0.3976(3) 0.43167(14) 0.71439(14)
H62 H 0.442876 0.401073 0.701892
C63 C 0.4477(5) 0.4806(3) 0.7493(3)
C64 C 0.5688(5) 0.4818(3) 0.7645(3)
H64 H 0.610965 0.450905 0.750277
C65 C 0.6271(6) 0.5270(3) 0.7996(2)
C66 C 0.9699(5) 0.6236(5) 0.9017(4)
H66A H 0.954941 0.664547 0.885611
H66B H 1.049591 0.613793 0.904133
H66C H 0.950707 0.622959 0.938497
C67 C 0.0482(7) 0.4192(5) 0.6890(5)
H67A H 0.078148 0.399153 0.659215
H67B H -0.033139 0.424229 0.678157
H67C H 0.064358 0.393952 0.722152
C68 C 0.18058(19) 0.57658(11) 0.77117(10)
H68A H 0.102563 0.567729 0.753152
H68B H 0.183858 0.572259 0.811235

#END
